Circuit: * C:\Users\Nagesh\Desktop\SPICE\debug1.asc

WARNING: Node N003 is floating.

Direct Newton iteration for .op point succeeded.

Date: Sat May 26 15:25:59 2018
Total elapsed time: 0.156 seconds.

tnom = 27
temp = 27
method = trap
totiter = 3
traniter = 0
tranpoints = 0
accept = 0
rejected = 0
matrix size = 4
fillins = 0
solver = Normal
Matrix Compiler1: 82 bytes object code size
Matrix Compiler2: 194 bytes object code size
