Circuit: * C:\Users\Nagesh\Desktop\SPICE\Draft2.asc

WARNING: Node X1:N002 is floating.
WARNING: Node X1:N001 is floating.

WARNING: Less than two connections to node X1:N002.  This node is used by M:X1:1.
WARNING: Less than two connections to node X1:N001.  This node is used by M:X1:2.
Direct Newton iteration for .op point succeeded.

Date: Tue May 15 09:13:14 2018
Total elapsed time: 0.216 seconds.

tnom = 27
temp = 27
method = modified trap
totiter = 2084
traniter = 2057
tranpoints = 1027
accept = 1025
rejected = 2
matrix size = 15
fillins = 2
solver = Normal
Matrix Compiler1: 1.44 KB object code size  0.6/0.3/[0.2]
Matrix Compiler2: off  [0.3]/0.7/0.4

