Stray ".ends" card: .ends
Circuit: * C:\Users\Nagesh\Desktop\SPICE\Draft8.asc

Warning: Pd = 0 is less than W.
Warning: Ps = 0 is less than W.
Direct Newton iteration for .op point succeeded.

Date: Mon Jun 14 04:47:17 1999
Total elapsed time: 0.074 seconds.

tnom = 27
temp = 27
method = modified trap
totiter = 2086
traniter = 2082
tranpoints = 1042
accept = 1042
rejected = 0
matrix size = 5
fillins = 0
solver = Normal
Matrix Compiler1: 132 bytes object code size  0.0/0.1/[0.0]
Matrix Compiler2: 295 bytes object code size  0.1/0.1/[0.0]

