Circuit: * C:\Users\Nagesh\Desktop\SPICE\Draft4.asc

WARNING: Less than two connections to node NC_01.  This node is used by R1.
Direct Newton iteration for .op point succeeded.

Date: Fri May 18 10:23:40 2018
Total elapsed time: 0.554 seconds.

tnom = 27
temp = 27
method = modified trap
totiter = 167163
traniter = 167160
tranpoints = 80998
accept = 68328
rejected = 12670
matrix size = 10
fillins = 0
solver = Normal
Matrix Compiler1: 300 bytes object code size  0.1/0.1/[0.1]
Matrix Compiler2: 550 bytes object code size  0.2/0.1/[0.1]

