Circuit: * C:\Users\Nagesh\Desktop\SPICE\Draft10.asc

Direct Newton iteration for .op point succeeded.

Date: Thu Oct 11 02:33:55 2018
Total elapsed time: 0.091 seconds.

tnom = 27
temp = 27
method = modified trap
totiter = 2097
traniter = 2088
tranpoints = 1045
accept = 1045
rejected = 0
matrix size = 13
fillins = 0
solver = Normal
Matrix Compiler1: 656 bytes object code size  0.3/0.2/[0.1]
Matrix Compiler2: off  [0.2]/0.2/0.3

