Circuit: * C:\Users\Nagesh\Desktop\SPICE\Draft1.asc

Direct Newton iteration for .op point succeeded.

Date: Thu May 24 17:47:17 2018
Total elapsed time: 0.375 seconds.

tnom = 27
temp = 27
method = modified trap
totiter = 21701
traniter = 21697
tranpoints = 10810
accept = 10601
rejected = 209
matrix size = 13
fillins = 1
solver = Normal
Matrix Compiler1: 700 bytes object code size  0.3/0.1/[0.1]
Matrix Compiler2: 879 bytes object code size  0.2/0.3/[0.1]

