Circuit: * C:\Users\Nagesh\Desktop\SPICE\Draft9.asc

Direct Newton iteration failed to find .op point.  (Use ".option noopiter" to skip.)
Starting Gmin stepping
Increasing initial diagonal Gmin to 100
Gmin = 100
Gmin = 10.7374
Gmin = 1.15292
vernier = 0.5
vernier = 0.666667
Gmin = 0.4029
vernier = 0.888888
vernier = 1
Gmin = 0.06089
vernier = 0.5
Gmin = 0.0102156
vernier = 0.25
vernier = 0.125
vernier = 0.0625
vernier = 0.03125
Gmin = 0.00932336
vernier = 0.0416667
Gmin = 0.00851474
vernier = 0.0555555
vernier = 0.074074
Gmin = 0.00734213
vernier = 0.0987653
vernier = 0.131687
Gmin = 0.00581152
vernier = 0.0658435
vernier = 0.0329218
vernier = 0.0164609
vernier = 0.00823044
vernier = 0.00411522
vernier = 0.00205761
vernier = 0.00102881
Gmin = 0.0057174
vernier = 0.000514403
vernier = 0.00068587
Gmin = 0.00570981
vernier = 0.000914493
vernier = 0.00121932
Gmin = 0.00569656
vernier = 0.00162576
Gmin = 0.00567576
vernier = 0.00216769
vernier = 0.00289025
Gmin = 0.00564102
vernier = 0.00385366
vernier = 0.00513821
Gmin = 0.00558606
vernier = 0.00685095
Gmin = 0.00550068
vernier = 0.0091346
vernier = 0.0121795
Gmin = 0.00536033
vernier = 0.0162393
vernier = 0.0216524
Gmin = 0.00514404
vernier = 0.0288698
Gmin = 0.00482155
vernier = 0.0384931
vernier = 0.0513241
Gmin = 0.00432596
vernier = 0.0684321
vernier = 0.0912428
Gmin = 0.00364095
vernier = 0.121657
Gmin = 0.00277948
vernier = 0.162209
vernier = 0.216279
Gmin = 0.00177379
vernier = 0.288372
vernier = 0.384496
vernier = 0.192248
Gmin = 0.0010514
vernier = 0.096124
vernier = 0.048062
vernier = 0.024031
vernier = 0.0120155
Gmin = 0.00100018
vernier = 0.00600775
vernier = 0.00300387
vernier = 0.00150194
vernier = 0.000750968
vernier = 0.000563226
Gmin = 0.00100018
vernier = 0.00042242
Gmin = 0
Gmin stepping failed

Starting source stepping with srcstepmethod=0
Source Step = 3.0303%
vernier = 0.25
Source Step = 1.70455%
Source Step = 3.59848%
Source Step = 4.45076%
Source Step = 4.92424%
Source Step = 5.39773%
Source Step = 5.87121%
Source Step = 6.3447%
vernier = 0.0234375
Source Step = 6.93655%
Source Step = 7.64678%
Source Step = 8.35701%
Source Step = 9.06723%
Source Step = 9.77746%
vernier = 0.0351563
Source Step = 10.6297%
Source Step = 11.6951%
Source Step = 12.7604%
Source Step = 13.8258%
Source Step = 14.8911%
vernier = 0.0527344
Source Step = 16.1162%
Source Step = 17.7143%
Source Step = 19.3123%
Source Step = 20.9103%
Source Step = 22.5083%
vernier = 0.0791016
Source Step = 24.2661%
Source Step = 26.6631%
Source Step = 29.0601%
Source Step = 31.4571%
Source Step = 33.8542%
vernier = 0.118652
Source Step = 36.371%
Source Step = 39.9666%
Source Step = 43.5621%
Source Step = 47.1576%
Source Step = 50.7531%
Source Step = 54.3487%
vernier = 0.177979
Source Step = 59.742%
Source Step = 65.1352%
Source Step = 70.5285%
Source Step = 75.9218%
Source Step = 81.3151%
vernier = 0.266968
Source Step = 89.1354%
Source Step = 97.2253%
Source stepping succeeded in finding the operating point.

Heightened Def Con from 0.0123734 ++++++++++++++to 0.0123734
Heightened Def Con from 0.012439 ++++++++++++++++to 0.012439
Heightened Def Con from 0.0124717 to 0.0124717
Heightened Def Con from 0.0124942 to 0.0124942
Heightened Def Con from 0.0126259 to 0.0126259
Heightened Def Con from 0.0150059 to 0.0150059
Heightened Def Con from 0.015268 to 0.015268
Heightened Def Con from 0.0153336 +++++++++++++++++++++to 0.0153336
Heightened Def Con from 0.0608196 to 0.0608196
Heightened Def Con from 0.0609507 to 0.0609507
Heightened Def Con from 0.0860857 +to 0.0860857
Heightened Def Con from 0.0861188 to 0.0861188
Heightened Def Con from 0.087431 +to 0.087431
Heightened Def Con from 0.112421 to 0.112421
Heightened Def Con from 0.112626 to 0.112626
Heightened Def Con from 0.114982 to 0.114982
Heightened Def Con from 0.115342 ++to 0.115342
Heightened Def Con from 0.137315 to 0.137315
Heightened Def Con from 0.137446 ++to 0.137446
Heightened Def Con from 0.160833 to 0.160833
Heightened Def Con from 0.187411 +to 0.187411
Heightened Def Con from 0.212475 ++++++++++++++++to 0.212475
Heightened Def Con from 0.215236 to 0.215236
Heightened Def Con from 0.215371 ++++++++++++++to 0.215371
Heightened Def Con from 0.286026 to 0.286026
Heightened Def Con from 0.286103 +to 0.286103
Heightened Def Con from 0.312461 +to 0.312461
Heightened Def Con from 0.314993 to 0.314993
Heightened Def Con from 0.315239 to 0.315239
Heightened Def Con from 0.33746 +++++++++++++++++++to 0.33746
Heightened Def Con from 0.360912 ++++++++++++++++++++++++++++++++++++++++to 0.360912
Heightened Def Con from 0.360912 ++++++++++++++++++to 0.360912
Heightened Def Con from 0.386021 to 0.386021
Heightened Def Con from 0.386086 ++++++++++++++to 0.386086
Heightened Def Con from 0.387013 to 0.387013
Heightened Def Con from 0.387614 to 0.387614
Heightened Def Con from 0.412409 to 0.412409
Heightened Def Con from 0.412474 ++++++++++++++++++to 0.412474
Heightened Def Con from 0.415252 +to 0.415252
Heightened Def Con from 0.415317 +++++++++++++++++++++++++++++++++++++++++++to 0.415317
Heightened Def Con from 0.415317 ++++++++++++++++++to 0.415317
Heightened Def Con from 0.415317 +to 0.415317
Heightened Def Con from 0.415317 to 0.415317
Heightened Def Con from 0.415446 to 0.415446
Heightened Def Con from 0.437424 to 0.437424
Heightened Def Con from 0.460954 +++++++++++++++++++to 0.460954
Heightened Def Con from 0.486037 to 0.486037
Heightened Def Con from 0.487407 +to 0.487407

Date: Wed Oct 10 22:33:06 2018
Total elapsed time: 13.711 seconds.

tnom = 27
temp = 27
method = modified trap
totiter = 175861
traniter = 170704
tranpoints = 36686
accept = 26350
rejected = 10666
matrix size = 297
fillins = 533
solver = Normal
Thread vector: 36.5/26.1[4] 10.8/8.3[4] 20.6/10.1[4] 2.3/4.8[1]  2592/500
Matrix Compiler1: 46.37 KB object code size  25.2/13.7/[5.1]
Matrix Compiler2: 33.72 KB object code size  10.8/12.9/[3.7]

