Circuit: * C:\Users\Nagesh\Desktop\SPICE\Draft3.asc

WARNING: Node N001 is floating.

Direct Newton iteration for .op point succeeded.

Date: Fri May 25 15:09:58 2018
Total elapsed time: 0.031 seconds.

tnom = 27
temp = 27
method = modified trap
totiter = 2091
traniter = 2088
tranpoints = 1045
accept = 1045
rejected = 0
matrix size = 1
fillins = 0
solver = Normal
Matrix Compiler1: off  0.0/[0.0]/0.0
Matrix Compiler2:       4 opcodes  0.0/[0.0]/0.0

