Circuit: * C:\Users\Nagesh\Desktop\SPICE\inv.asc

WARNING: Node N002 is floating.
WARNING: Node N001 is floating.

WARNING: Less than two connections to node N002.  This node is used by M1.
WARNING: Less than two connections to node N001.  This node is used by M2.

Date: Tue May 15 08:47:33 2018
Total elapsed time: 0.091 seconds.

tnom = 27
temp = 27
method = trap
totiter = 2027
traniter = 0
tranpoints = 0
accept = 0
rejected = 0
matrix size = 15
fillins = 2
solver = Normal
Matrix Compiler1: 1.44 KB object code size  0.6/0.4/[0.2]
Matrix Compiler2: 1.58 KB object code size  0.3/0.4/[0.2]

