Circuit: * C:\Users\Nagesh\Desktop\SPICE\ladder_3to1.asc

Direct Newton iteration for .op point succeeded.

Date: Tue May 15 16:55:57 2018
Total elapsed time: 0.078 seconds.

tnom = 27
temp = 27
method = modified trap
totiter = 3048
traniter = 3044
tranpoints = 1511
accept = 1428
rejected = 83
matrix size = 11
fillins = 0
solver = Normal
Matrix Compiler1: 546 bytes object code size  0.3/0.1/[0.1]
Matrix Compiler2: off  [0.1]/0.3/0.2

