Stray ".ends" card: .ends
Circuit: * C:\Users\Nagesh\Desktop\SPICE\Q1-S3.asc

Warning: Pd = 0 is less than W.
Warning: Ps = 0 is less than W.
Warning: Pd = 0 is less than W.
Warning: Ps = 0 is less than W.
Warning: Pd = 0 is less than W.
Warning: Ps = 0 is less than W.
Warning: Pd = 0 is less than W.
Warning: Ps = 0 is less than W.
Warning: Pd = 0 is less than W.
Warning: Ps = 0 is less than W.
Warning: Pd = 0 is less than W.
Warning: Ps = 0 is less than W.
Warning: Pd = 0 is less than W.
Warning: Ps = 0 is less than W.
Warning: Pd = 0 is less than W.
Warning: Ps = 0 is less than W.
Warning: Pd = 0 is less than W.
Warning: Ps = 0 is less than W.
Warning: Pd = 0 is less than W.
Warning: Ps = 0 is less than W.
Direct Newton iteration for .op point succeeded.

Date: Wed May 30 20:18:58 2018
Total elapsed time: 0.199 seconds.

tnom = 27
temp = 27
method = trap
totiter = 38
traniter = 0
tranpoints = 0
accept = 0
rejected = 0
matrix size = 21
fillins = 8
solver = Normal
Matrix Compiler1:     115 opcodes
Matrix Compiler2:     169 opcodes
