Circuit: * C:\Users\Nagesh\Desktop\SPICE\SP.asc

Direct Newton iteration for .op point succeeded.

Date: Sat Sep 15 00:05:35 2018
Total elapsed time: 18.842 seconds.

tnom = 27
temp = 27
method = modified trap
totiter = 3972810
traniter = 3972807
tranpoints = 967748
accept = 737371
rejected = 230377
matrix size = 11
fillins = 0
solver = Normal
Matrix Compiler1: 342 bytes object code size  0.2/0.1/[0.0]
Matrix Compiler2: off  [0.1]/0.1/0.1

