Circuit: * C:\Users\Nagesh\Desktop\SPICE\two_caps_four_swchs.asc

Fatal Error: Voltage source V3 and voltage source VDD are paralleled making an over-defined circuit matrix.
You will need to correct the circuit or add some series resistance.
