Circuit: * C:\Users\Nagesh\Desktop\SPICE\Window Comparator_v2.asc

Direct Newton iteration for .op point succeeded.

Date: Fri Oct 12 19:39:37 2018
Total elapsed time: 1.596 seconds.

tnom = 27
temp = 27
method = modified trap
totiter = 30966
traniter = 30961
tranpoints = 8729
accept = 6929
rejected = 1800
matrix size = 121
fillins = 51
solver = Normal
Thread vector: 18.8/11.5[4] 2.5/5.9[1] 11.5/15.7[1] 0.6/4.2[1]  2592/500
Matrix Compiler1: 6.09 KB object code size  3.6/1.8/[0.5]
Matrix Compiler2: 9.92 KB object code size  2.0/2.9/[0.6]

