Circuit: * C:\Users\Nagesh\Desktop\SPICE\Window Comparator.asc

Direct Newton iteration for .op point succeeded.

Date: Thu Oct 11 01:38:24 2018
Total elapsed time: 1.114 seconds.

tnom = 27
temp = 27
method = modified trap
totiter = 30966
traniter = 30961
tranpoints = 8729
accept = 6929
rejected = 1800
matrix size = 121
fillins = 51
solver = Normal
Thread vector: 18.6/12.8[4] 2.5/6.2[1] 9.4/4.5[4] 0.6/3.0[1]  2592/500
Matrix Compiler1: 6.09 KB object code size  3.6/1.8/[0.5]
Matrix Compiler2: 9.92 KB object code size  2.1/3.1/[0.6]

